-----BEGIN CERTIFICATE-----
MIIFtTCCA52gAwIBAgIJAMXYnQaOVzIEMA0GCSqGSIb3DQEBBQUAMEUxCzAJBgNV
BAYTAkFVMRMwEQYDVQQIEwpTb21lLVN0YXRlMSEwHwYDVQQKExhJbnRlcm5ldCBX
aWRnaXRzIFB0eSBMdGQwHhcNMTYxMjEzMjIxNDU4WhcNMTcxMjEzMjIxNDU4WjBF
MQswCQYDVQQGEwJBVTETMBEGA1UECBMKU29tZS1TdGF0ZTEhMB8GA1UEChMYSW50
ZXJuZXQgV2lkZ2l0cyBQdHkgTHRkMIICIjANBgkqhkiG9w0BAQEFAAOCAg8AMIIC
CgKCAgEAq++5R0F9+qrS7NP3Q0UmYWlPNac99AgiS0WWN3TW5ROMfduFTMwaN42g
1qfwv6Dj1G7SqyZFvKtF6C9mO/UZi27WVjlzymdHJ8whKoTqjuEKA+sAgOEp4i7Q
q75ToRt8qu2GhKmZBGZ1cqWN4SRNsSCIfJJtyQCgmRvpESq0sv4yq4dbhVmiXtIL
renkU1i/A6rp6tRGNjOeNVoamGn8NiWurrOJrkYPUJ8Td6lJ0CGWF50aewqcw6KU
krQ6tHPi2TKfWHlQPCmUfY55kL8SqxggWqztrnnTqZBRW6PRYlCeF9R/MZlATKcL
e4BO/MSWKIlU0Ry5oEJuhjz4xIdv64PdYQtEiKCsNbXyxgdyx+pMoG4cn54BnTDW
L4erEMWy+DnNRi5qNAFr6XF8ggEt1fNqsrYJM0Iw8fEzx5r313F7EXBngADhoD2l
vrc24zmOZZPCpD+MF7UQh3Gf8eHxkG549RJXDYrrOga5yQFO8At9MVzlpkdmolhr
YmaxyV2LPUNIrV8JUfdeo/QeEHitPnoX5KdSPF8d5TejH3qI6y65YatZk+N3usSG
qnR413ONKRNKDJWAwUZr1JmLc2hJv/kksYxaBtc1GLJjNiakDXZf62Cugs/g7aG8
mxzli7fNTTUI0HbYh1WOsMvt5aNy7k+5w0BH5bgh+XzjdNnkMccCAwEAAaOBpzCB
pDAdBgNVHQ4EFgQU3+VkpxukXURW1YIj5FnoNA4cB84wdQYDVR0jBG4wbIAU3+Vk
pxukXURW1YIj5FnoNA4cB86hSaRHMEUxCzAJBgNVBAYTAkFVMRMwEQYDVQQIEwpT
b21lLVN0YXRlMSEwHwYDVQQKExhJbnRlcm5ldCBXaWRnaXRzIFB0eSBMdGSCCQDF
2J0GjlcyBDAMBgNVHRMEBTADAQH/MA0GCSqGSIb3DQEBBQUAA4ICAQAVm/JxGP+a
2ZvlfTggY/CsS7BM24gIl9VMRBJPWYNlyUEVc2LblhTPrRsQYvELiXt7dr7+JB+5
rhrGHdJXQYGmCin2laIFaPGHi5TJttBJ6nV+zKAyvjho5qru9+b8IOYajp9c6uLZ
8tFdc8DNC4KOQoL394wIzNNHzSs6W3YMoh4N4v0dQK6HPqK0Vs7UhCjDlfNGewcB
sWBSw7bxVwdOV6wQbEFCddfLL5rzr38751L0/lGCLF7ff0aBSqGlVVdJzJjg6mA0
7sv7ZP5Vn0AbrKfA/Blo0Bh4LubR/t6mtPsicMbCBoPFA23ORX1aOspS1j1QfYU/
+YvMphqmrvmqiTusv2z02/fTz7kZWb9vOb0RA56u3La9HMETeLhikoWDDWWWEC8a
O9bMqY6rGXcBlszSb9oaWUv5wLB2CEBzybK4+fS2GUSkp9W00N7wSXVoVcu9PIcp
Rws81AHDqyt37UbbKpDB/yTQcy98XfpyP85v36Din54iMOqda8RtLC0IQVbShZzf
J5K5TsL4V3KJ21st7jDgykIoZ/RBjqzgPIbi2WNZWq64kJ3DQ+/MsSAUobvruhVc
MT3DfEqU44tl343qIpIDwh6wZQMeW7mRPyGGQwK9viItnW47T4Q3vwkAMc696R5A
Ud1dWMp2u3mcinuuG82ShqQM67fXdmEGiQ==
-----END CERTIFICATE-----
